45
Lattice="11.2019999028 0.0 0.0 -5.6009999514 9.7012164891 0.0 0.0 0.0 25.0" Properties=species:S:1:pos:R:3:Z:I:1 pbc="T T T"
C       0.00000000       0.00000000       7.52701521        6 
Cr       1.86700182       1.07791182       9.23060062       24 
F      -0.00000189       2.15582691       9.98123471        9 
F       1.86700182       1.07791182       5.07279437        9 
W      -0.00000189       2.15582691       5.82342845       74 
C      -1.86699998       3.23373883       7.52701521        6 
Cr       0.00000184       4.31165065       9.23060062       24 
F      -1.86700187       5.38956574       9.98123471        9 
F       0.00000184       4.31165065       5.07279437        9 
W      -1.86700187       5.38956574       5.82342845       74 
C      -3.73399997       6.46747766       7.52701521        6 
Cr      -1.86699815       7.54538948       9.23060062       24 
F      -3.73400186       8.62330457       9.98123471        9 
F      -1.86699815       7.54538948       5.07279437        9 
W      -3.73400186       8.62330457       5.82342845       74 
C       3.73399997       0.00000000       7.52701521        6 
Cr       5.60100179       1.07791182       9.23060062       24 
F       3.73399808       2.15582691       9.98123471        9 
F       5.60100179       1.07791182       5.07279437        9 
W       3.73399808       2.15582691       5.82342845       74 
C       1.86699998       3.23373883       7.52701521        6 
Cr       3.73400180       4.31165065       9.23060062       24 
F       1.86699809       5.38956574       9.98123471        9 
F       3.73400180       4.31165065       5.07279437        9 
W       1.86699809       5.38956574       5.82342845       74 
C       0.00000000       6.46747766       7.52701521        6 
Cr       1.86700182       7.54538948       9.23060062       24 
F      -0.00000189       8.62330457       9.98123471        9 
F       1.86700182       7.54538948       5.07279437        9 
W      -0.00000189       8.62330457       5.82342845       74 
C       7.46799994       0.00000000       7.52701521        6 
Cr       9.33500176       1.07791182       9.23060062       24 
F       7.46799805       2.15582691       9.98123471        9 
F       9.33500176       1.07791182       5.07279437        9 
W       7.46799805       2.15582691       5.82342845       74 
C       5.60099995       3.23373883       7.52701521        6 
Cr       7.46800177       4.31165065       9.23060062       24 
F       5.60099806       5.38956574       9.98123471        9 
F       7.46800177       4.31165065       5.07279437        9 
W       5.60099806       5.38956574       5.82342845       74 
C       3.73399997       6.46747766       7.52701521        6 
Cr       5.60100179       7.54538948       9.23060062       24 
F       3.73399808       8.62330457       9.98123471        9 
F       5.60100179       7.54538948       5.07279437        9 
W       3.73399808       8.62330457       5.82342845       74 
